@<TRIPOS>MOLECULE
*****
 75 78 0 0 0
SMALL
GASTEIGER
****

@<TRIPOS>ATOM
      1 C           1.7827   -3.3993   -4.5758 C.3     1  LIG1        0.2800
      2 N          -0.7584    3.1752   -1.2083 N.3     1  LIG1       -0.8494
      3 C          -1.1945    1.9156   -1.8135 C.3     1  LIG1        0.3557
      4 S          -0.8382    4.5944   -2.2206 S.O2    1  LIG1        1.4470
      5 C          -0.3687    1.3156   -2.9346 C.3     1  LIG1        0.2800
      6 C          -2.3318    4.5774   -3.2711 C.ar    1  LIG1       -0.0090
      7 C          -0.8288   -0.1021   -3.5024 C.3     1  LIG1        0.3001
      8 C          -1.7733   -0.1666   -4.7563 C.3     1  LIG1        0.1435
      9 N          -0.6456   -1.3697   -2.7460 N.am    1  LIG1       -0.7301
     10 C          -3.2144   -0.1254   -4.3672 C.ar    1  LIG1       -0.1435
     11 C          -0.0208   -2.5972   -3.0375 C.2     1  LIG1        0.7800
     12 C          -4.2478   -0.7118   -5.0451 C.ar    1  LIG1       -0.1500
     13 C          -3.5684    0.6552   -3.2916 C.ar    1  LIG1       -0.1500
     14 O           0.4353   -2.8182   -4.3218 O.3     1  LIG1       -0.4300
     15 O           0.1547   -3.3948   -2.1252 O.2     1  LIG1       -0.5700
     16 C          -5.5390   -0.6220   -4.5063 C.ar    1  LIG1       -0.1500
     17 C          -4.7731    0.6574   -2.6312 C.ar    1  LIG1       -0.1500
     18 C          -5.7912    0.0025   -3.2719 C.ar    1  LIG1       -0.1500
     19 C          -3.4578    5.3112   -2.8820 C.ar    1  LIG1       -0.1500
     20 C          -4.5155    5.5412   -3.7978 C.ar    1  LIG1       -0.1500
     21 C          -4.4886    5.0148   -5.0940 C.ar    1  LIG1        0.1000
     22 C          -3.3480    4.3267   -5.4898 C.ar    1  LIG1       -0.1500
     23 C          -2.2802    4.1397   -4.6014 C.ar    1  LIG1       -0.1500
     24 C          -1.2257    3.3323    0.2196 C.3     1  LIG1        0.3557
     25 O          -0.2577    2.1580   -4.0678 O.3     1  LIG1       -0.6800
     26 O          -0.9276    5.7274   -1.3943 O.2     1  LIG1       -0.6500
     27 O           0.3159    4.4665   -3.1492 O.2     1  LIG1       -0.6500
     28 C           2.8771   -2.3212   -4.7768 C.3     1  LIG1        0.0000
     29 C           2.8043   -1.9611   -6.2728 C.3     1  LIG1        0.5600
     30 O           2.2217   -3.0587   -6.9437 O.3     1  LIG1       -0.5600
     31 C           1.9186   -4.0670   -5.9607 C.3     1  LIG1        0.2800
     32 C           2.6346   -0.9974   -4.1318 C.3     1  LIG1        0.0000
     33 C           1.6550   -0.4471   -5.1461 C.3     1  LIG1        0.2800
     34 O           2.0337   -0.7848   -6.4450 O.3     1  LIG1       -0.5600
     35 H           3.7617   -1.6602   -6.6944 H       1  LIG1        0.0000
     36 H           3.8637   -2.7375   -4.5539 H       1  LIG1        0.0000
     37 N          -5.4425    5.3906   -6.0470 N.pl3   1  LIG1       -0.9000
     38 C          -0.5249    2.3463    1.2113 C.3     1  LIG1        0.0000
     39 C          -0.8916    0.8536    1.1604 C.3     1  LIG1        0.0000
     40 C           0.9982    2.5010    1.1781 C.3     1  LIG1        0.0000
     41 H           2.0322   -4.1121   -3.7796 H       1  LIG1        0.0000
     42 H          -2.2575    2.0925   -1.8341 H       1  LIG1        0.0000
     43 H          -1.1255    1.0729   -1.1778 H       1  LIG1        0.0000
     44 H           0.6504    1.2019   -2.5227 H       1  LIG1        0.0000
     45 H           0.0859   -0.1313   -3.9766 H       1  LIG1        0.0000
     46 H          -1.5576    0.6492   -5.4628 H       1  LIG1        0.0000
     47 H          -1.5848   -1.0972   -5.3057 H       1  LIG1        0.0000
     48 H          -0.9008   -1.3290   -1.7711 H       1  LIG1        0.3700
     49 H          -4.0574   -1.1929   -5.9974 H       1  LIG1        0.1500
     50 H          -2.8737    1.4276   -3.1396 H       1  LIG1        0.1500
     51 H          -6.3648   -1.0431   -5.0633 H       1  LIG1        0.1500
     52 H          -4.9083    1.2311   -1.7186 H       1  LIG1        0.1500
     53 H          -6.7899    0.0461   -2.8548 H       1  LIG1        0.1500
     54 H          -3.5002    5.7960   -1.9099 H       1  LIG1        0.1500
     55 H          -5.3398    6.1892   -3.5049 H       1  LIG1        0.1500
     56 H          -3.2570    3.9581   -6.5107 H       1  LIG1        0.1500
     57 H          -1.3799    3.7054   -5.0206 H       1  LIG1        0.1500
     58 H          -2.3167    3.2573    0.3079 H       1  LIG1        0.0000
     59 H          -0.9514    4.3388    0.5548 H       1  LIG1        0.0000
     60 H           0.6786    2.4108   -4.1923 H       1  LIG1        0.4000
     61 H           2.7972   -4.7278   -5.9688 H       1  LIG1        0.0000
     62 H           1.0457   -4.6252   -6.2962 H       1  LIG1        0.0000
     63 H           3.5314   -0.3722   -4.1473 H       1  LIG1        0.0000
     64 H           2.2993   -1.0747   -3.0889 H       1  LIG1        0.0000
     65 H           1.4819    0.6181   -5.0416 H       1  LIG1        0.0000
     66 H           0.7392   -1.0156   -5.1276 H       1  LIG1        0.0000
     67 H          -6.3845    5.4889   -5.6829 H       1  LIG1        0.4000
     68 H          -5.4169    4.8561   -6.9105 H       1  LIG1        0.4000
     69 H          -0.8325    2.6657    2.2182 H       1  LIG1        0.0000
     70 H          -1.6186    0.5986    1.9308 H       1  LIG1        0.0000
     71 H          -0.0082    0.2119    1.2529 H       1  LIG1        0.0000
     72 H          -1.4090    0.4967    0.2907 H       1  LIG1        0.0000
     73 H           1.2912    3.4006    1.7272 H       1  LIG1        0.0000
     74 H           1.3843    2.5638    0.1573 H       1  LIG1        0.0000
     75 H           1.4960    1.6560    1.6664 H       1  LIG1        0.0000
@<TRIPOS>BOND
     1     2     3    1
     2     2     4    1
     3     3     5    1
     4     4     6    1
     5     7     9    1
     6     8    10    1
     7     9    11   am
     8    10    12   ar
     9    10    13   ar
    10    11    14    1
    11    11    15    2
    12    12    16   ar
    13    13    17   ar
    14    16    18   ar
    15    17    18   ar
    16     6    19   ar
    17    19    20   ar
    18    20    21   ar
    19    21    22   ar
    20    22    23   ar
    21     6    23   ar
    22     2    24    1
    23     5    25    1
    24     4    26    2
    25     4    27    2
    26     1    28    1
    27    28    29    1
    28    29    30    1
    29    30    31    1
    30     1    31    1
    31    28    32    1
    32    32    33    1
    33    33    34    1
    34    29    34    1
    35    21    37    1
    36    24    38    1
    37    38    39    1
    38    38    40    1
    39     1    14    1
    40    28    36    1
    41    29    35    1
    42     7     8    1
    43     7     5    1
    44     1    41    1
    45     3    42    1
    46     3    43    1
    47     5    44    1
    48     7    45    1
    49     8    46    1
    50     8    47    1
    51     9    48    1
    52    12    49    1
    53    13    50    1
    54    16    51    1
    55    17    52    1
    56    18    53    1
    57    19    54    1
    58    20    55    1
    59    22    56    1
    60    23    57    1
    61    24    58    1
    62    24    59    1
    63    25    60    1
    64    31    61    1
    65    31    62    1
    66    32    63    1
    67    32    64    1
    68    33    65    1
    69    33    66    1
    70    37    67    1
    71    37    68    1
    72    38    69    1
    73    39    70    1
    74    39    71    1
    75    39    72    1
    76    40    73    1
    77    40    74    1
    78    40    75    1
