WARNING: damped steplength 0.00289385 to 0.00212356
@<TRIPOS>MOLECULE
*****
 94 97 0 0 0
SMALL
GASTEIGER

@<TRIPOS>ATOM
      1 C           6.4154    1.2541   -1.9733 C.ar    1  LIG1       -0.1500
      2 C           5.5171    0.4055   -2.5983 C.ar    1  LIG1       -0.1500
      3 C           5.2336   -0.8257   -2.0157 C.ar    1  LIG1       -0.1500
      4 C           5.8309   -1.1936   -0.7944 C.ar    1  LIG1       -0.1500
      5 C           6.6973   -0.3165   -0.1141 C.ar    1  LIG1       -0.1435
      6 C           6.9618    0.9116   -0.7351 C.ar    1  LIG1       -0.1500
      7 C           7.1912   -0.6019    1.3089 C.3     1  LIG1        0.1435
      8 C           8.3612    6.1668   -2.9453 C.ar    1  LIG1        0.0825
      9 O           8.9221    5.7147   -1.7457 O.3     1  LIG1       -0.3625
     10 C           9.7724    4.5706   -1.7832 C.3     1  LIG1        0.3410
     11 C          10.3673    3.8050   -0.5703 C.2     1  LIG1        0.5690
     12 N           9.7026    3.9154    0.6142 N.am    1  LIG1       -0.7301
     13 C          10.1363    3.2050    1.8464 C.3     1  LIG1        0.3001
     14 C           9.2936    1.9098    2.1695 C.3     1  LIG1        0.2800
     15 C           9.5424    0.6788    1.2513 C.3     1  LIG1        0.0000
     16 C           8.7377   -0.6258    1.6148 C.3     1  LIG1        0.3001
     17 N           9.0277   -1.0128    3.0435 N.am    1  LIG1       -0.7301
     18 C           9.1759   -2.2758    3.5536 C.2     1  LIG1        0.5690
     19 C           9.4276   -2.4166    5.1121 C.3     1  LIG1        0.3611
     20 N           8.1610   -2.5149    5.9050 N.am    1  LIG1       -0.6602
     21 C           8.0726    5.3631   -4.0741 C.ar    1  LIG1       -0.1435
     22 C           7.2665    5.8414   -5.1279 C.ar    1  LIG1       -0.1500
     23 C           6.7853    7.1323   -5.1346 C.ar    1  LIG1       -0.1500
     24 C           7.1688    7.9819   -4.1100 C.ar    1  LIG1       -0.1500
     25 C           7.9709    7.5299   -3.0284 C.ar    1  LIG1       -0.1435
     26 C           8.5424    3.9625   -4.2736 C.3     1  LIG1        0.1435
     27 C           8.4122    8.5906   -2.0539 C.3     1  LIG1        0.1435
     28 O          11.3018    3.0025   -0.7407 O.2     1  LIG1       -0.5700
     29 C          10.2104    4.2473    3.0174 C.3     1  LIG1        0.1435
     30 C          10.5767    3.7892    4.4231 C.ar    1  LIG1       -0.1435
     31 C          10.1661    4.5268    5.5509 C.ar    1  LIG1       -0.1500
     32 C          10.6565    4.2232    6.8310 C.ar    1  LIG1       -0.1500
     33 C          11.6090    3.2220    6.9966 C.ar    1  LIG1       -0.1500
     34 C          12.0004    2.4659    5.8986 C.ar    1  LIG1       -0.1500
     35 C          11.4558    2.7186    4.6363 C.ar    1  LIG1       -0.1500
     36 O           7.8983    2.1927    2.1981 O.3     1  LIG1       -0.6800
     37 O           9.0307   -3.2748    2.8136 O.2     1  LIG1       -0.5700
     38 C          10.4816   -3.5365    5.4744 C.3     1  LIG1        0.0000
     39 C          11.8144   -3.3515    4.7296 C.3     1  LIG1        0.0000
     40 C          10.0446   -4.9851    5.2273 C.3     1  LIG1        0.0000
     41 C           7.0622   -3.3217    5.3817 C.3     1  LIG1        0.3001
     42 C           5.7164   -2.9653    5.9880 C.3     1  LIG1        0.0000
     43 C           5.8478   -3.0531    7.4878 C.3     1  LIG1        0.3001
     44 N           6.9496   -2.2509    7.9221 N.am    1  LIG1       -0.7301
     45 C           8.1359   -2.0473    7.2286 C.2     1  LIG1        0.6900
     46 O           9.0440   -1.4629    7.7613 O.2     1  LIG1       -0.5700
     47 H           6.6599    2.2111   -2.4170 H       1  LIG1        0.1500
     48 H           5.0264    0.7193   -3.5162 H       1  LIG1        0.1500
     49 H           4.5259   -1.4902   -2.5065 H       1  LIG1        0.1500
     50 H           5.5698   -2.1611   -0.3707 H       1  LIG1        0.1500
     51 H           7.5613    1.6671   -0.2443 H       1  LIG1        0.1500
     52 H           6.7692   -1.5698    1.6194 H       1  LIG1        0.0000
     53 H           6.6954    0.1173    1.9713 H       1  LIG1        0.0000
     54 H          10.6284    4.8310   -2.4177 H       1  LIG1        0.0000
     55 H           9.2305    3.7194   -2.1832 H       1  LIG1        0.0000
     56 H           8.8786    4.5129    0.6316 H       1  LIG1        0.3700
     57 H          11.1670    2.8713    1.6724 H       1  LIG1        0.0000
     58 H           9.5727    1.5832    3.1726 H       1  LIG1        0.0000
     59 H          10.6134    0.4346    1.2766 H       1  LIG1        0.0000
     60 H           9.3563    0.9436    0.2099 H       1  LIG1        0.0000
     61 H           9.1450   -1.4363    0.9866 H       1  LIG1        0.0000
     62 H           8.9315   -0.2721    3.7403 H       1  LIG1        0.3700
     63 H           9.8927   -1.4688    5.4269 H       1  LIG1        0.0000
     64 H           7.0085    5.1785   -5.9524 H       1  LIG1        0.1500
     65 H           6.1526    7.4709   -5.9500 H       1  LIG1        0.1500
     66 H           6.8472    9.0207   -4.1678 H       1  LIG1        0.1500
     67 H           8.3297    3.5616   -5.2645 H       1  LIG1        0.0000
     68 H           8.0059    3.3418   -3.5600 H       1  LIG1        0.0000
     69 H           9.6307    3.9238   -4.1754 H       1  LIG1        0.0000
     70 H           8.3107    9.5880   -2.5090 H       1  LIG1        0.0000
     71 H           9.4744    8.4830   -1.8174 H       1  LIG1        0.0000
     72 H           7.8096    8.5798   -1.1439 H       1  LIG1        0.0000
     73 H           9.2932    4.8517    3.0468 H       1  LIG1        0.0000
     74 H          11.0023    4.9635    2.7393 H       1  LIG1        0.0000
     75 H           9.4730    5.3609    5.4544 H       1  LIG1        0.1500
     76 H          10.3146    4.7806    7.7010 H       1  LIG1        0.1500
     77 H          12.0393    3.0214    7.9754 H       1  LIG1        0.1500
     78 H          12.7430    1.6809    6.0171 H       1  LIG1        0.1500
     79 H          11.7513    2.0629    3.8228 H       1  LIG1        0.1500
     80 H           7.7263    2.8603    2.8815 H       1  LIG1        0.4000
     81 H          10.7067   -3.4534    6.5468 H       1  LIG1        0.0000
     82 H          11.6988   -3.5241    3.6544 H       1  LIG1        0.0000
     83 H          12.5531   -4.0819    5.0872 H       1  LIG1        0.0000
     84 H          12.2350   -2.3557    4.8873 H       1  LIG1        0.0000
     85 H           9.6877   -5.1381    4.2068 H       1  LIG1        0.0000
     86 H           9.2731   -5.3060    5.9294 H       1  LIG1        0.0000
     87 H          10.8946   -5.6674    5.3628 H       1  LIG1        0.0000
     88 H           7.2908   -4.3766    5.5580 H       1  LIG1        0.0000
     89 H           6.9858   -3.1541    4.3086 H       1  LIG1        0.0000
     90 H           4.9362   -3.6388    5.6224 H       1  LIG1        0.0000
     91 H           5.4402   -1.9433    5.7022 H       1  LIG1        0.0000
     92 H           6.0242   -4.0831    7.8194 H       1  LIG1        0.0000
     93 H           4.9392   -2.6918    7.9818 H       1  LIG1        0.0000
     94 H           6.9810   -1.9179    8.8788 H       1  LIG1        0.3700
@<TRIPOS>BOND
     1    21    22   ar
     2    22    23   ar
     3    23    24   ar
     4    24    25   ar
     5    25     8   ar
     6    12    13    1
     7    21    26    1
     8    25    27    1
     9    13    14    1
    10    11    28    2
    11     5     7    1
    12    13    29    1
    13    14    15    1
    14    29    30    1
    15     1     2   ar
    16    15    16    1
    17     2     3   ar
    18    16    17    1
    19     8     9    1
    20    30    31   ar
    21    31    32   ar
    22    32    33   ar
    23    33    34   ar
    24    34    35   ar
    25    35    30   ar
    26    14    36    1
    27    16     7    1
    28    17    18   am
    29     3     4   ar
    30    18    37    2
    31     9    10    1
    32    38    39    1
    33    19    20    1
    34    38    40    1
    35     4     5   ar
    36    10    11    1
    37     5     6   ar
    38    11    12   am
    39     6     1   ar
    40    20    41    1
    41    41    42    1
    42    42    43    1
    43    43    44    1
    44    44    45   am
    45    45    20   am
    46     8    21   ar
    47    45    46    2
    48    19    38    1
    49    19    18    1
    50     1    47    1
    51     2    48    1
    52     3    49    1
    53     4    50    1
    54     6    51    1
    55     7    52    1
    56     7    53    1
    57    10    54    1
    58    10    55    1
    59    12    56    1
    60    13    57    1
    61    14    58    1
    62    15    59    1
    63    15    60    1
    64    16    61    1
    65    17    62    1
    66    19    63    1
    67    22    64    1
    68    23    65    1
    69    24    66    1
    70    26    67    1
    71    26    68    1
    72    26    69    1
    73    27    70    1
    74    27    71    1
    75    27    72    1
    76    29    73    1
    77    29    74    1
    78    31    75    1
    79    32    76    1
    80    33    77    1
    81    34    78    1
    82    35    79    1
    83    36    80    1
    84    38    81    1
    85    39    82    1
    86    39    83    1
    87    39    84    1
    88    40    85    1
    89    40    86    1
    90    40    87    1
    91    41    88    1
    92    41    89    1
    93    42    90    1
    94    42    91    1
    95    43    92    1
    96    43    93    1
    97    44    94    1
