@<TRIPOS>MOLECULE
*****
 77 80 0 0 0
SMALL
GASTEIGER
****

@<TRIPOS>ATOM
      1 C           0.5725   -4.9394    7.9794 C.ar    1  LIG1       -0.3316
      2 N           0.3194   -4.0934    9.0355 N.ar    1  LIG1        0.5052
      3 C           0.9805   -6.3777    8.2387 C.3     1  LIG1        0.6600
      4 C           0.2246   -4.2524    6.8230 C.ar    1  LIG1       -0.1500
      5 C          -0.3927   -3.0209    8.5972 C.ar    1  LIG1       -0.2366
      6 N           0.6316   -4.3176   10.3159 N.ar    1  LIG1       -0.6520
      7 O           1.1813   -6.9850    6.9086 O.3     1  LIG1       -0.5600
      8 C          -0.1864   -7.1640    8.8500 C.3     1  LIG1        0.2800
      9 C          -0.4251   -3.0534    7.2201 C.ar    1  LIG1       -0.1500
     10 C          -0.9464   -2.1551    9.5873 C.ar    1  LIG1        0.5850
     11 C           0.1331   -3.4561   11.1455 C.ar    1  LIG1        0.6010
     12 C           0.4441   -8.2371    6.8488 C.3     1  LIG1        0.2800
     13 C           0.0189   -8.5551    8.2769 C.3     1  LIG1        0.2800
     14 O          -0.2920   -7.1900   10.2688 O.3     1  LIG1       -0.6800
     15 N          -0.6680   -2.3848   10.8344 N.ar    1  LIG1       -0.6610
     16 N          -1.7691   -1.1061    9.3029 N.pl3   1  LIG1       -0.8500
     17 O           1.0377   -9.2059    9.0518 O.3     1  LIG1       -0.6800
     18 C           2.2361   -6.4820    9.0056 C.1     1  LIG1        0.3571
     19 N           3.2600   -6.6456    9.6111 N.1     1  LIG1       -0.5571
     20 C          -0.7522   -8.0656    5.8930 C.3     1  LIG1        0.2800
     21 O          -1.4871   -9.2787    5.7164 O.3     1  LIG1       -0.5512
     22 P          -2.8096   -9.2360    4.7646 P.3     1  LIG1        1.5103
     23 N          -2.2122   -8.8726    3.2772 N.3     1  LIG1       -0.8979
     24 C          -3.0403   -8.1368    2.3116 C.3     1  LIG1        0.3310
     25 C          -2.3211   -8.1388    0.9415 C.2     1  LIG1        0.6590
     26 O          -3.3000  -10.7807    4.7045 O.3     1  LIG1       -0.3537
     27 O          -3.8255   -8.2710    5.2986 O.2     1  LIG1       -0.7000
     28 C          -4.1780  -11.4200    5.5480 C.ar    1  LIG1        0.0825
     29 C          -4.8145  -10.8073    6.6235 C.ar    1  LIG1       -0.1500
     30 C          -5.6778  -11.5335    7.4549 C.ar    1  LIG1       -0.1500
     31 C          -5.9423  -12.8761    7.2015 C.ar    1  LIG1       -0.1500
     32 C          -5.3539  -13.4901    6.0995 C.ar    1  LIG1       -0.1500
     33 C          -4.4612  -12.7706    5.2874 C.ar    1  LIG1       -0.1500
     34 C          -3.2955   -6.6820    2.7415 C.3     1  LIG1        0.0000
     35 O          -3.0288   -8.8763    0.0449 O.3     1  LIG1       -0.4300
     36 O          -1.2933   -7.5151    0.6997 O.2     1  LIG1       -0.5700
     37 C          -2.8338   -8.6604   -1.3668 C.3     1  LIG1        0.2800
     38 C          -3.9179   -7.7044   -1.9299 C.3     1  LIG1        0.0000
     39 C          -5.3232   -8.0530   -1.3787 C.3     1  LIG1        0.0000
     40 C          -3.5655   -6.1970   -1.8598 C.3     1  LIG1        0.0000
     41 C          -3.3036   -5.5501   -0.5145 C.3     1  LIG1        0.0000
     42 C          -6.4379   -7.1385   -1.8737 C.3     1  LIG1        0.0000
     43 H           0.3242   -4.6226    5.8094 H       1  LIG1        0.1500
     44 H          -1.1367   -6.7653    8.4713 H       1  LIG1        0.0000
     45 H          -0.9092   -2.3336    6.5727 H       1  LIG1        0.1500
     46 H           0.3587   -3.5920   12.2167 H       1  LIG1        0.0600
     47 H           1.1219   -9.0043    6.4574 H       1  LIG1        0.0000
     48 H          -0.8743   -9.1779    8.3457 H       1  LIG1        0.0000
     49 H           0.3021   -7.9044   10.5785 H       1  LIG1        0.4000
     50 H          -1.6391   -0.6511    8.4103 H       1  LIG1        0.4000
     51 H          -1.8866   -0.4738   10.0863 H       1  LIG1        0.4000
     52 H           1.8640   -9.2863    8.5394 H       1  LIG1        0.4000
     53 H          -1.4181   -7.2656    6.2346 H       1  LIG1        0.0000
     54 H          -0.3526   -7.7398    4.9277 H       1  LIG1        0.0000
     55 H          -1.3104   -8.4150    3.3100 H       1  LIG1        0.3600
     56 H          -4.0022   -8.6481    2.1934 H       1  LIG1        0.0000
     57 H          -4.6724   -9.7587    6.8515 H       1  LIG1        0.1500
     58 H          -6.1456  -11.0397    8.3032 H       1  LIG1        0.1500
     59 H          -6.6045  -13.4355    7.8591 H       1  LIG1        0.1500
     60 H          -5.5900  -14.5295    5.8785 H       1  LIG1        0.1500
     61 H          -3.9939  -13.2836    4.4499 H       1  LIG1        0.1500
     62 H          -2.5870   -5.9696    2.3064 H       1  LIG1        0.0000
     63 H          -3.2507   -6.5308    3.8219 H       1  LIG1        0.0000
     64 H          -4.3032   -6.3781    2.4337 H       1  LIG1        0.0000
     65 H          -2.9744   -9.6447   -1.8377 H       1  LIG1        0.0000
     66 H          -1.8154   -8.3469   -1.6301 H       1  LIG1        0.0000
     67 H          -3.9571   -7.9139   -3.0089 H       1  LIG1        0.0000
     68 H          -5.3296   -8.0387   -0.2837 H       1  LIG1        0.0000
     69 H          -5.5693   -9.0811   -1.6794 H       1  LIG1        0.0000
     70 H          -4.3756   -5.6286   -2.3269 H       1  LIG1        0.0000
     71 H          -2.6892   -6.0187   -2.4922 H       1  LIG1        0.0000
     72 H          -4.0092   -5.8812    0.2475 H       1  LIG1        0.0000
     73 H          -3.3824   -4.4604   -0.5889 H       1  LIG1        0.0000
     74 H          -2.2771   -5.7239   -0.1964 H       1  LIG1        0.0000
     75 H          -6.3047   -6.1163   -1.5077 H       1  LIG1        0.0000
     76 H          -7.4075   -7.4835   -1.5012 H       1  LIG1        0.0000
     77 H          -6.4808   -7.1164   -2.9674 H       1  LIG1        0.0000
@<TRIPOS>BOND
     1     1     2   ar
     2     3     1    1
     3     1     4   ar
     4     2     5   ar
     5     2     6   ar
     6     3     7    1
     7     3     8    1
     8     4     9   ar
     9     5    10   ar
    10     6    11   ar
    11     7    12    1
    12     8    13    1
    13    10    15   ar
    14    10    16    1
    15    13    17    1
    16     5     9   ar
    17    11    15   ar
    18    12    13    1
    19     3    18    1
    20    18    19    3
    21    20    21    1
    22    21    22    1
    23    22    23    1
    24    22    26    1
    25    22    27    2
    26    26    28    1
    27    28    29   ar
    28    29    30   ar
    29    30    31   ar
    30    31    32   ar
    31    32    33   ar
    32    28    33   ar
    33    24    34    1
    34    25    35    1
    35    25    36    2
    36    35    37    1
    37    37    38    1
    38    38    39    1
    39    38    40    1
    40    40    41    1
    41    39    42    1
    42     8    14    1
    43    12    20    1
    44    24    25    1
    45    24    23    1
    46     4    43    1
    47     8    44    1
    48     9    45    1
    49    11    46    1
    50    12    47    1
    51    13    48    1
    52    14    49    1
    53    16    50    1
    54    16    51    1
    55    17    52    1
    56    20    53    1
    57    20    54    1
    58    23    55    1
    59    24    56    1
    60    29    57    1
    61    30    58    1
    62    31    59    1
    63    32    60    1
    64    33    61    1
    65    34    62    1
    66    34    63    1
    67    34    64    1
    68    37    65    1
    69    37    66    1
    70    38    67    1
    71    39    68    1
    72    39    69    1
    73    40    70    1
    74    40    71    1
    75    41    72    1
    76    41    73    1
    77    41    74    1
    78    42    75    1
    79    42    76    1
    80    42    77    1
