@<TRIPOS>MOLECULE
*****
 48 49 0 0 0
SMALL
GASTEIGER
****

@<TRIPOS>ATOM
      1 N          -0.3445    1.0579   -2.8068 N.pl3   1  LIG1       -0.8691
      2 C           0.0629    1.8435   -1.6320 C.3     1  LIG1        0.3691
      3 C          -0.4817    3.2853   -1.7369 C.3     1  LIG1        0.0000
      4 C          -0.3832    1.1182   -0.3585 C.3     1  LIG1        0.0000
      5 C          -2.0100    3.3511   -1.8099 C.3     1  LIG1        0.0000
      6 C          -2.5776    4.7707   -2.0063 C.3     1  LIG1        0.2700
      7 N          -4.0517    4.7453   -2.0827 N.3     1  LIG1       -0.8100
      8 C          -4.5567    3.9641   -3.2358 C.3     1  LIG1        0.2700
      9 C          -4.6984    6.0722   -2.0760 C.3     1  LIG1        0.2700
     10 C          -4.0994    4.4470   -4.6134 C.3     1  LIG1        0.0000
     11 C          -4.4377    6.9778   -0.8777 C.3     1  LIG1        0.0000
     12 C           0.4392    0.9445   -3.9552 C.ar    1  LIG1        0.1000
     13 C          -0.1277    0.7098   -5.2506 C.ar    1  LIG1        0.0000
     14 C           0.7641    0.3816   -6.2989 C.ar    1  LIG1        0.3100
     15 N           2.0935    0.3742   -6.1643 N.ar    1  LIG1       -0.6200
     16 C           2.6006    0.6654   -4.9534 C.ar    1  LIG1        0.1600
     17 C           1.8270    0.9184   -3.8322 C.ar    1  LIG1       -0.1500
     18 C          -1.5133    0.7860   -5.5795 C.ar    1  LIG1       -0.1500
     19 C          -1.9760    0.4660   -6.8650 C.ar    1  LIG1       -0.1500
     20 C          -1.0754    0.0480   -7.8292 C.ar    1  LIG1        0.1770
     21 C           0.2833    0.0240   -7.5508 C.ar    1  LIG1       -0.1500
     22 CL         -1.6393   -0.4487   -9.3794 Cl      1  LIG1       -0.1770
     23 H          -1.3449    1.0421   -2.9711 H       1  LIG1        0.4000
     24 H           1.1504    1.9239   -1.5511 H       1  LIG1        0.0000
     25 H          -0.0511    3.7585   -2.6291 H       1  LIG1        0.0000
     26 H          -0.1328    3.8631   -0.8727 H       1  LIG1        0.0000
     27 H          -1.4465    0.8598   -0.3721 H       1  LIG1        0.0000
     28 H          -0.1855    1.7302    0.5286 H       1  LIG1        0.0000
     29 H           0.1738    0.1806   -0.2397 H       1  LIG1        0.0000
     30 H          -2.4337    2.9157   -0.8980 H       1  LIG1        0.0000
     31 H          -2.3244    2.7254   -2.6461 H       1  LIG1        0.0000
     32 H          -2.1455    5.2264   -2.9044 H       1  LIG1        0.0000
     33 H          -2.2527    5.3763   -1.1531 H       1  LIG1        0.0000
     34 H          -5.6534    3.9503   -3.2063 H       1  LIG1        0.0000
     35 H          -4.2866    2.9078   -3.1269 H       1  LIG1        0.0000
     36 H          -5.7839    5.9060   -2.0954 H       1  LIG1        0.0000
     37 H          -4.4514    6.6415   -2.9775 H       1  LIG1        0.0000
     38 H          -4.2528    5.5206   -4.7524 H       1  LIG1        0.0000
     39 H          -4.6706    3.9385   -5.3956 H       1  LIG1        0.0000
     40 H          -3.0396    4.2318   -4.7824 H       1  LIG1        0.0000
     41 H          -4.3802    6.4236    0.0626 H       1  LIG1        0.0000
     42 H          -5.2622    7.6971   -0.7861 H       1  LIG1        0.0000
     43 H          -3.5188    7.5566   -1.0120 H       1  LIG1        0.0000
     44 H           3.6901    0.6524   -4.8887 H       1  LIG1        0.1500
     45 H           2.3413    1.0460   -2.8966 H       1  LIG1        0.1500
     46 H          -2.2410    1.1114   -4.8483 H       1  LIG1        0.1500
     47 H          -3.0387    0.5356   -7.0960 H       1  LIG1        0.1500
     48 H           0.9885   -0.2862   -8.3145 H       1  LIG1        0.1500
@<TRIPOS>BOND
     1     1     2    1
     2     2     3    1
     3     2     4    1
     4     3     5    1
     5     5     6    1
     6     6     7    1
     7     7     8    1
     8     7     9    1
     9     8    10    1
    10     9    11    1
    11     1    12    1
    12    12    13   ar
    13    13    14   ar
    14    14    15   ar
    15    15    16   ar
    16    16    17   ar
    17    12    17   ar
    18    13    18   ar
    19    18    19   ar
    20    19    20   ar
    21    20    21   ar
    22    21    14   ar
    23    20    22    1
    24     1    23    1
    25     2    24    1
    26     3    25    1
    27     3    26    1
    28     4    27    1
    29     4    28    1
    30     4    29    1
    31     5    30    1
    32     5    31    1
    33     6    32    1
    34     6    33    1
    35     8    34    1
    36     8    35    1
    37     9    36    1
    38     9    37    1
    39    10    38    1
    40    10    39    1
    41    10    40    1
    42    11    41    1
    43    11    42    1
    44    11    43    1
    45    16    44    1
    46    17    45    1
    47    18    46    1
    48    19    47    1
    49    21    48    1
