@<TRIPOS>MOLECULE
*****
 49 50 0 0 0
SMALL
GASTEIGER
****

@<TRIPOS>ATOM
      1 C          -0.2320    6.9422   -1.4934 C.ar    1  LIG1       -0.1500
      2 C          -1.0149    7.0820   -2.6269 C.ar    1  LIG1        0.1770
      3 C          -0.9685    6.1224   -3.6324 C.ar    1  LIG1       -0.1500
      4 C          -0.1615    4.9992   -3.5142 C.ar    1  LIG1        0.3100
      5 C           0.6038    4.7907   -2.3423 C.ar    1  LIG1        0.0000
      6 C           0.5719    5.8071   -1.3483 C.ar    1  LIG1       -0.1500
      7 N          -0.1570    4.1553   -4.5554 N.ar    1  LIG1       -0.6200
      8 C           0.6343    3.0731   -4.4734 C.ar    1  LIG1        0.1600
      9 C           1.3901    2.7484   -3.3651 C.ar    1  LIG1       -0.1500
     10 C           1.3493    3.5714   -2.2358 C.ar    1  LIG1        0.1000
     11 CL         -2.0456    8.4497   -2.7960 Cl      1  LIG1       -0.1770
     12 N           2.1141    3.2756   -1.0878 N.pl3   1  LIG1       -0.8691
     13 C           2.4360    1.8838   -0.7065 C.3     1  LIG1        0.3691
     14 C           3.7199    1.9114    0.1585 C.3     1  LIG1        0.0000
     15 C           1.2463    1.2711    0.0405 C.3     1  LIG1        0.0000
     16 C           4.1856    0.5211    0.6189 C.3     1  LIG1        0.0000
     17 C           5.4703    0.5399    1.4769 C.3     1  LIG1        0.2700
     18 N           5.3956    1.3271    2.7303 N.3     1  LIG1       -0.8100
     19 C           4.3841    0.7533    3.6568 C.3     1  LIG1        0.2700
     20 C           4.2010    1.4833    5.0034 C.3     1  LIG1        0.2800
     21 O           3.1419    0.8772    5.7434 O.3     1  LIG1       -0.6800
     22 C           6.7134    1.4130    3.3965 C.3     1  LIG1        0.2700
     23 C           7.8153    2.0928    2.5876 C.3     1  LIG1        0.0000
     24 H          -0.2406    7.7039   -0.7170 H       1  LIG1        0.1500
     25 H          -1.5680    6.2459   -4.5288 H       1  LIG1        0.1500
     26 H           1.1864    5.7351   -0.4572 H       1  LIG1        0.1500
     27 H           0.6485    2.4453   -5.3609 H       1  LIG1        0.1500
     28 H           2.0072    1.8616   -3.4152 H       1  LIG1        0.1500
     29 H           1.7951    3.7994   -0.2771 H       1  LIG1        0.4000
     30 H           2.6550    1.2666   -1.5820 H       1  LIG1        0.0000
     31 H           3.5627    2.5623    1.0265 H       1  LIG1        0.0000
     32 H           4.5236    2.3717   -0.4323 H       1  LIG1        0.0000
     33 H           1.1016    1.7469    1.0168 H       1  LIG1        0.0000
     34 H           1.3928    0.1986    0.2045 H       1  LIG1        0.0000
     35 H           0.3150    1.3842   -0.5247 H       1  LIG1        0.0000
     36 H           4.3787   -0.0948   -0.2695 H       1  LIG1        0.0000
     37 H           3.3901    0.0089    1.1673 H       1  LIG1        0.0000
     38 H           6.2645    0.9379    0.8345 H       1  LIG1        0.0000
     39 H           5.7479   -0.4990    1.7032 H       1  LIG1        0.0000
     40 H           4.6040   -0.3033    3.8606 H       1  LIG1        0.0000
     41 H           3.4000    0.7670    3.1742 H       1  LIG1        0.0000
     42 H           3.9467    2.5359    4.8431 H       1  LIG1        0.0000
     43 H           5.0996    1.4200    5.6231 H       1  LIG1        0.0000
     44 H           2.9803    1.4463    6.5163 H       1  LIG1        0.4000
     45 H           7.0594    0.4219    3.7170 H       1  LIG1        0.0000
     46 H           6.6115    2.0256    4.2976 H       1  LIG1        0.0000
     47 H           8.2996    1.3906    1.9028 H       1  LIG1        0.0000
     48 H           8.5869    2.4735    3.2677 H       1  LIG1        0.0000
     49 H           7.4346    2.9442    2.0149 H       1  LIG1        0.0000
@<TRIPOS>BOND
     1     1     2   ar
     2     2     3   ar
     3     3     4   ar
     4     4     5   ar
     5     5     6   ar
     6     1     6   ar
     7     4     7   ar
     8     7     8   ar
     9     8     9   ar
    10     9    10   ar
    11     5    10   ar
    12     2    11    1
    13    10    12    1
    14    12    13    1
    15    13    14    1
    16    13    15    1
    17    14    16    1
    18    16    17    1
    19    17    18    1
    20    18    19    1
    21    19    20    1
    22    20    21    1
    23    18    22    1
    24    22    23    1
    25     1    24    1
    26     3    25    1
    27     6    26    1
    28     8    27    1
    29     9    28    1
    30    12    29    1
    31    13    30    1
    32    14    31    1
    33    14    32    1
    34    15    33    1
    35    15    34    1
    36    15    35    1
    37    16    36    1
    38    16    37    1
    39    17    38    1
    40    17    39    1
    41    19    40    1
    42    19    41    1
    43    20    42    1
    44    20    43    1
    45    21    44    1
    46    22    45    1
    47    22    46    1
    48    23    47    1
    49    23    48    1
    50    23    49    1
